12
Coordinates from ORCA-job manual_329
  C   -2.26774289928729      0.18972469940041     -1.01328336019624
  C   -1.15796925793514     -0.82175025125613     -0.81500087849409
  C   -0.31158475666657     -0.54305596521497      0.38850820853671
  Br  1.41733141933223      1.01213445736393     -0.64729155352072
  H   -2.88472886114750     -0.05993251630438     -1.88943408907512
  H   -2.92596370234237      0.21750854406587     -0.13024391856469
  H   -1.84250701314230      1.19482241923204     -1.16373760985243
  H   -1.57042999467781     -1.83754286844225     -0.71023961065440
  H   -0.49321325711364     -0.85435392379298     -1.69269238991200
  H   0.52309331440998     -1.19002800773739      0.64232403970498
  H   -0.50366448852552      0.30817113569971      1.03359081337151
  Br  -1.63566050290406     -1.81023772301386      2.15217034865649
