9
Coordinates from ORCA-job manual_328
  C   -1.59442309503199     -0.31332593034545      0.82195144663359
  C   -0.40663119724044     -0.67453962061190     -0.00585459895627
  Br  0.73444102072571      1.59589082613142     -0.13303279032482
  H   -2.44199806303269     -0.96265130662724      0.56413052656214
  H   -1.38273886110932     -0.41357339511928      1.89528580436868
  H   -1.89458703780302      0.72313451209063      0.61238967156097
  H   -0.46467181510912     -0.63405284047746     -1.09035141600765
  H   0.53551635873297     -0.98189527402128      0.43327649685549
  Br  -0.80038731013208     -3.17947697101943     -0.22080514069215
