15
Coordinates from ORCA-job manual_344_redo_2
  C   2.39313467284535      0.14301474271211     -0.92837599712908
  C   1.02721244601063      0.78214728704296     -0.69690064159782
  C   0.62894137474766      1.74777442256816     -1.80841331790860
  C   -0.04056727131446     -0.25007481090863     -0.43558019891530
  Br  -0.71929953810098      0.18280825282968      1.88140019811345
  H   2.37309472500273     -0.46036256621343     -1.84760865145141
  H   3.16930754532136      0.91800761947305     -1.02064060707031
  H   2.66806904264063     -0.51617849265065     -0.08979218984911
  H   1.09373605095679      1.37015241089403      0.23259094477829
  H   -0.32004269410629      2.25455318909292     -1.57033631076479
  H   1.39838892959761      2.52315134847195     -1.94442311697649
  H   0.50262720210295      1.19553870427297     -2.75066885002346
  H   -1.07063986313188     -0.06917040482521     -0.72504224406800
  H   0.21973720849106     -1.25413693539171     -0.11856313964409
  Cl  -0.03030983106318     -1.40288476736820     -2.65031587749325
