12
Coordinates from ORCA-job manual_reactants_339_opt
  C   1.40420650661284     -0.44746594895112     -0.70835690274319
  C   0.03845186361816     -0.17339749570810     -0.12768038651962
  C   -0.70555536336300     -1.41535539685369      0.29867827417430
  Br  -1.04966485865660      0.85378556413255     -1.45298635230071
  H   1.90703891189243      0.47740003217115     -1.02561305937239
  H   1.33652356518682     -1.12596196662642     -1.57311241983143
  H   1.99299789639203     -0.93759628183692      0.08977867747395
  H   0.10683344954809      0.53498215344063      0.70942792765054
  H   -1.67860383207555     -1.17368335750122      0.75122538531939
  H   -0.06971231827735     -1.91679458422128      1.05134815140855
  H   -0.86626917254884     -2.09711454989401     -0.55061080354824
  Cl  2.24530335167097     -2.03496816815156      2.38240150828885
