18
Coordinates from ORCA-job manual_reactants_345_opt
  C   1.08703910089457     -0.61784529525553      1.12929323184767
  C   0.23916291012256     -0.59829919346874     -0.14774930609674
  C   1.14814828236460     -0.54186383417019     -1.37441447520342
  C   -0.62638661892706     -1.85681921693171     -0.19686196900493
  C   -0.61780478366297      0.66120317862737     -0.05148566580328
  Br  -1.77775488010328      0.97731595768148     -1.60620328159362
  H   0.46500088356725     -0.65796710296079      2.03657234548968
  H   1.74497031887200     -1.49876375691643      1.15895856709314
  H   1.73651928574639      0.26693841362250      1.21330950240572
  H   0.55915656626229     -0.55418852027227     -2.30436636246015
  H   1.82626187551327     -1.40933311524485     -1.38930099330721
  H   1.76379853918479      0.37226445750129     -1.37241139795702
  H   -1.26564730004883     -1.87014248399097     -1.09355967936359
  H   -1.27843056324233     -1.92829166041840      0.68882326567781
  H   0.01403904077846     -2.75282048476135     -0.22068989677533
  H   -1.30259173264883      0.62216239124371      0.80639722629980
  H   0.00472859222943      1.56275730820773      0.02447479812327
  Cl  3.18107048309771     -1.13791704249283      3.90307409062819
