6
Coordinates from ORCA-job manual_reactants_327
  C   -1.42840276573358     -0.23928733852081     -0.40652965775584
  Br  0.28236299511026      0.29829143538114     -1.15106402809382
  H   -1.71347848741789     -1.19380355924790     -0.86331038558278
  H   -2.15781426466232      0.54076385868963     -0.64989694071891
  H   -1.27944221437355     -0.34211653559927      0.67730522375387
  Br  0.25436473707708     -0.62516786070279      3.13082578839748
